CE
GW 1 2 0 0 0 0 0 0.15 0.002
GW 2 2 0 0 0.15 0.15 0 0.15 0.002
GW 3 2 0 0 0.15 -0.15 0 0.15 0.002
GW 4 2 0 0 0.15 0 0.15 0.15 0.002
GW 5 2 0 0 0.15 0 -0.15 0.15 0.002
GW 6 38 0 0.15 0.15 0 0.15 10.15 0.002
GW 7 20 0 -0.15 0.15 0 -0.15 5.15 0.002
GW 8 10 0.15 0 0.15 0.15 0 2.65 0.002
GW 9 12 -0.15 0 0.15 -0.15 0 3.15 0.002
GS 0 0 1
GE 1
LD 2 1 1 2 0 3.54859E-07 0
LD 2 2 1 2 0 3.54859E-07 0
LD 2 3 1 2 0 3.54859E-07 0
LD 2 4 1 2 0 3.54859E-07 0
LD 2 5 1 2 0 3.54859E-07 0
LD 2 6 1 38 0 3.54859E-07 0
LD 2 7 1 20 0 3.54859E-07 0
LD 2 8 1 10 0 3.54859E-07 0
LD 2 9 1 12 0 3.54859E-07 0
GN 1
FR 0 1 0 0 14 0
EX 0 1 1 0 1.0000 0.0000
RP 0 1 360 1000 70 0 0 1
RP 0 181 1 1000 90 0 -1 0
EN
